<?xml version="1.0" encoding="UTF-8"?>

<!-- generated on 2023-11-08 18:57:49 by Eclipse SUMO netedit Version v1_19_0+0022-4c0a3df81e3
<configuration xmlns:xsi="http://www.w3.org/2001/XMLSchema-instance" xsi:noNamespaceSchemaLocation="http://sumo.dlr.de/xsd/neteditConfiguration.xsd">

    <input>
        <sumo-net-file value="./simulation/network/net.net.xml"/>
    </input>

    <output>
        <output-file value="./simulation/network/net.net.xml"/>
        <output.street-names value="true"/>
    </output>

    <processing>
        <geometry.min-radius.fix.railways value="false"/>
        <geometry.max-grade.fix value="false"/>
        <offset.disable-normalization value="true"/>
        <lefthand value="0"/>
    </processing>

    <junctions>
        <no-turnarounds value="true"/>
        <junctions.corner-detail value="5"/>
        <junctions.limit-turn-speed value="5.50"/>
        <rectangular-lane-cut value="0"/>
    </junctions>

    <pedestrian>
        <walkingareas value="0"/>
    </pedestrian>

</configuration>
-->

<net version="1.16" junctionCornerDetail="5" limitTurnSpeed="5.50" xmlns:xsi="http://www.w3.org/2001/XMLSchema-instance" xsi:noNamespaceSchemaLocation="http://sumo.dlr.de/xsd/net_file.xsd">

    <location netOffset="-441419.41,-3676592.75" convBoundary="558.02,533.69,1971.65,1177.48" origBoundary="-87.628748,33.226723,-87.598600,33.248134" projParameter="+proj=utm +zone=16 +ellps=WGS84 +datum=WGS84 +units=m +no_defs"/>

    <type id="highway.primary" priority="12" numLanes="2" speed="27.78" disallow="tram rail_urban rail rail_electric rail_fast ship" oneway="1"/>
    <type id="highway.primary_link" priority="7" numLanes="1" speed="22.22" disallow="tram rail_urban rail rail_electric rail_fast ship" oneway="1"/>
    <type id="highway.secondary" priority="-1" numLanes="1" speed="13.89" oneway="1" width="-1.00"/>
    <type id="highway.service" priority="1" numLanes="1" speed="5.56" allow="pedestrian delivery bicycle" oneway="1"/>
    <type id="highway.tertiary" priority="10" numLanes="1" speed="22.22" disallow="tram rail_urban rail rail_electric rail_fast ship" oneway="1"/>

    <edge id=":6018663506_0" function="internal">
        <lane id=":6018663506_0_0" index="0" disallow="tram rail_urban rail rail_electric rail_fast ship" speed="20.12" length="17.55" width="3.66" shape="1870.72,1033.20,50.71 1887.62,1037.93,50.66"/>
        <lane id=":6018663506_0_1" index="1" disallow="tram rail_urban rail rail_electric rail_fast ship" speed="20.12" length="17.55" width="3.66" shape="1869.76,1036.74,50.71 1886.65,1041.46,50.66"/>
    </edge>
    <edge id=":6018664060_0" function="internal">
        <lane id=":6018664060_0_0" index="0" disallow="tram rail_urban rail rail_electric rail_fast ship" speed="20.12" length="22.81" width="3.66" shape="1900.19,1061.17,50.50 1894.11,1060.11,50.53 1889.31,1060.08,50.55 1884.25,1059.98,50.57 1877.36,1058.71,50.60"/>
        <lane id=":6018664060_0_1" index="1" disallow="tram rail_urban rail rail_electric rail_fast ship" speed="20.12" length="22.81" width="3.66" shape="1900.19,1061.17,50.50 1878.30,1055.17,50.60"/>
        <lane id=":6018664060_0_2" index="2" disallow="tram rail_urban rail rail_electric rail_fast ship" speed="20.12" length="22.81" width="3.66" shape="1901.13,1057.63,50.50 1879.24,1051.63,50.60"/>
    </edge>
    <edge id=":6018699112_0" function="internal">
        <lane id=":6018699112_0_0" index="0" disallow="tram rail_urban rail rail_electric rail_fast ship" speed="20.12" length="34.95" width="3.66" shape="1117.32,852.93,49.75 1083.62,843.89,49.62"/>
        <lane id=":6018699112_0_1" index="1" disallow="tram rail_urban rail rail_electric rail_fast ship" speed="20.12" length="34.95" width="3.66" shape="1118.28,849.39,49.75 1084.59,840.36,49.62"/>
        <lane id=":6018699112_0_2" index="2" disallow="tram rail_urban rail rail_electric rail_fast ship" speed="20.12" length="34.95" width="3.66" shape="1118.28,849.39,49.75 1111.13,846.89,49.72 1103.72,843.63,49.69 1095.42,840.11,49.66 1085.56,836.83,49.62"/>
    </edge>
    <edge id=":6018699306_0" function="internal">
        <lane id=":6018699306_0_0" index="0" disallow="tram rail_urban rail rail_electric rail_fast ship" speed="20.12" length="28.51" width="3.66" shape="1641.03,994.06,51.80 1634.46,992.92,51.75 1628.40,992.51,51.71 1621.57,991.85,51.66 1612.66,989.96,51.59"/>
        <lane id=":6018699306_0_1" index="1" disallow="tram rail_urban rail rail_electric rail_fast ship" speed="20.12" length="28.51" width="3.66" shape="1641.03,994.06,51.80 1613.63,986.43,51.59"/>
        <lane id=":6018699306_0_2" index="2" disallow="tram rail_urban rail rail_electric rail_fast ship" speed="20.12" length="28.51" width="3.66" shape="1641.93,990.51,51.80 1614.60,982.90,51.59"/>
    </edge>
    <edge id=":63082002_0" function="internal">
        <lane id=":63082002_0_0" index="0" disallow="tram rail_urban rail rail_electric rail_fast ship" speed="21.23" length="28.65" width="3.66" shape="974.77,813.90,49.24 947.16,806.19,48.97"/>
        <lane id=":63082002_0_1" index="1" disallow="tram rail_urban rail rail_electric rail_fast ship" speed="21.23" length="28.65" width="3.66" shape="975.70,810.36,49.24 948.12,802.65,48.97"/>
    </edge>
    <edge id=":63082002_2" function="internal">
        <lane id=":63082002_2_0" index="0" speed="11.47" length="31.65" width="3.66" shape="976.64,806.82,49.24 968.48,803.30,49.21 963.57,798.13,49.19 961.92,791.31,49.17 963.53,782.85,49.14"/>
    </edge>
    <edge id=":63082002_3" function="internal">
        <lane id=":63082002_3_0" index="0" disallow="tram rail_urban rail rail_electric rail_fast ship" speed="11.77" length="30.61" width="3.66" shape="968.97,784.74,49.14 965.05,793.98,49.08 960.27,800.05,49.04 954.62,802.94,49.01 948.12,802.65,48.97"/>
    </edge>
    <edge id=":63082002_4" function="internal">
        <lane id=":63082002_4_0" index="0" disallow="tram rail_urban rail rail_electric rail_fast ship" speed="21.23" length="28.60" width="3.66" shape="952.14,787.71,49.11 980.00,794.18,49.17"/>
        <lane id=":63082002_4_1" index="1" disallow="tram rail_urban rail rail_electric rail_fast ship" speed="21.23" length="28.60" width="3.66" shape="951.19,791.25,49.12 979.06,797.72,49.17"/>
    </edge>
    <edge id=":63082003_0" function="internal">
        <lane id=":63082003_0_0" index="0" disallow="tram rail_urban rail rail_electric rail_fast ship" speed="20.12" length="28.18" width="3.66" shape="1343.84,911.26,50.80 1316.48,904.50,50.59"/>
        <lane id=":63082003_0_1" index="1" disallow="tram rail_urban rail rail_electric rail_fast ship" speed="20.12" length="28.18" width="3.66" shape="1344.77,907.72,50.80 1317.42,900.96,50.59"/>
    </edge>
    <edge id=":63082003_2" function="internal">
        <lane id=":63082003_2_0" index="0" disallow="tram rail_urban rail rail_electric rail_fast ship" speed="11.00" length="29.20" width="3.66" shape="1345.70,904.18,50.80 1337.87,900.91,50.76 1333.12,896.22,50.74 1331.44,890.09,50.72 1332.85,882.54,50.69"/>
    </edge>
    <edge id=":63082003_3" function="internal">
        <lane id=":63082003_3_0" index="0" disallow="tram rail_urban rail rail_electric rail_fast ship" speed="7.60" length="13.23" width="3.66" shape="1340.26,885.25,50.70 1340.05,887.87,50.71 1341.36,890.13,50.72 1344.18,892.03,50.73 1348.51,893.55,50.74"/>
    </edge>
    <edge id=":63082003_4" function="internal">
        <lane id=":63082003_4_0" index="0" disallow="tram rail_urban rail rail_electric rail_fast ship" speed="8.95" length="31.40" width="3.66" shape="1340.26,885.25,50.70 1331.41,915.38,50.52"/>
    </edge>
    <edge id=":63082003_5" function="internal">
        <lane id=":63082003_5_0" index="0" disallow="tram rail_urban rail rail_electric rail_fast ship" speed="11.48" length="9.91" width="3.66" shape="1336.83,883.95,50.70 1333.01,892.63,50.66 1332.75,892.97,50.66"/>
    </edge>
    <edge id=":63082003_11" function="internal">
        <lane id=":63082003_11_0" index="0" disallow="tram rail_urban rail rail_electric rail_fast ship" speed="11.48" length="18.64" width="3.66" shape="1332.75,892.97,50.66 1328.51,898.36,50.64 1323.31,901.13,50.61 1317.42,900.96,50.59"/>
    </edge>
    <edge id=":63082003_6" function="internal">
        <lane id=":63082003_6_0" index="0" disallow="tram rail_urban rail rail_electric rail_fast ship" speed="20.12" length="28.17" width="3.66" shape="1321.33,886.15,50.72 1348.51,893.55,50.74"/>
        <lane id=":63082003_6_1" index="1" disallow="tram rail_urban rail rail_electric rail_fast ship" speed="20.12" length="28.17" width="3.66" shape="1320.39,889.69,50.72 1347.57,897.09,50.74"/>
    </edge>
    <edge id=":63082003_8" function="internal">
        <lane id=":63082003_8_0" index="0" disallow="tram rail_urban rail rail_electric rail_fast ship" speed="11.21" length="28.69" width="3.66" shape="1319.46,893.23,50.72 1326.50,896.36,50.67 1330.84,901.10,50.62 1332.48,907.44,50.58 1331.41,915.38,50.52"/>
    </edge>
    <edge id=":63082003_9" function="internal">
        <lane id=":63082003_9_0" index="0" disallow="tram rail_urban rail rail_electric rail_fast ship" speed="8.95" length="32.04" width="3.66" shape="1324.11,913.36,50.53 1332.85,882.54,50.69"/>
    </edge>
    <edge id=":63082003_10" function="internal">
        <lane id=":63082003_10_0" index="0" disallow="tram rail_urban rail rail_electric rail_fast ship" speed="11.41" length="10.86" width="3.66" shape="1327.64,914.33,50.53 1330.99,905.37,50.60 1331.77,904.34,50.60"/>
    </edge>
    <edge id=":63082003_12" function="internal">
        <lane id=":63082003_12_0" index="0" disallow="tram rail_urban rail rail_electric rail_fast ship" speed="11.41" length="18.87" width="3.66" shape="1331.77,904.34,50.60 1335.43,899.51,50.65 1340.96,896.75,50.69 1347.57,897.09,50.74"/>
    </edge>
    <edge id=":63082004_0" function="internal">
        <lane id=":63082004_0_0" index="0" speed="20.12" length="27.77" width="3.66" shape="1719.38,1013.68,51.68 1692.45,1007.06,51.71"/>
        <lane id=":63082004_0_1" index="1" speed="20.12" length="27.77" width="3.66" shape="1720.35,1010.15,51.68 1693.35,1003.51,51.71"/>
    </edge>
    <edge id=":63082004_2" function="internal">
        <lane id=":63082004_2_0" index="0" speed="12.82" length="32.36" width="3.66" shape="1721.32,1006.62,51.68 1714.50,1003.56,51.66 1709.78,998.25,51.64 1707.17,990.71,51.61 1706.67,980.92,51.58"/>
    </edge>
    <edge id=":63082004_3" function="internal">
        <lane id=":63082004_3_0" index="0" speed="9.14" length="15.00" width="3.66" shape="1714.47,981.32,51.67 1715.12,983.91,51.65 1717.25,986.22,51.62 1720.84,988.25,51.59 1725.63,989.89,51.55"/>
    </edge>
    <edge id=":63082004_4" function="internal">
        <lane id=":63082004_4_0" index="0" speed="15.65" length="36.69" width="3.66" shape="1714.47,981.32,51.67 1710.88,1017.83,51.58"/>
    </edge>
    <edge id=":63082004_5" function="internal">
        <lane id=":63082004_5_0" index="0" speed="11.32" length="34.13" width="3.66" shape="1710.82,981.13,51.67 1709.83,991.77,51.68 1707.10,999.55,51.69 1701.86,1003.71,51.70 1693.35,1003.51,51.71"/>
    </edge>
    <edge id=":63082004_12" function="internal">
        <lane id=":63082004_12_0" index="0" speed="9.14" length="0.29" width="3.66" shape="1725.63,989.89,51.55 1725.91,989.99,51.55"/>
    </edge>
    <edge id=":63082004_6" function="internal">
        <lane id=":63082004_6_0" index="0" disallow="tram rail_urban rail rail_electric rail_fast ship" speed="20.12" length="28.13" width="3.66" shape="1697.35,987.70,51.74 1724.84,993.85,51.60"/>
        <lane id=":63082004_6_1" index="1" disallow="tram rail_urban rail rail_electric rail_fast ship" speed="20.12" length="28.13" width="3.66" shape="1696.45,991.25,51.74 1723.87,997.38,51.60"/>
    </edge>
    <edge id=":63082004_8" function="internal">
        <lane id=":63082004_8_0" index="0" disallow="tram rail_urban rail rail_electric rail_fast ship" speed="12.62" length="30.13" width="3.66" shape="1695.55,994.80,51.74 1702.37,997.74,51.70 1707.20,1002.56,51.67 1710.04,1009.26,51.63 1710.88,1017.83,51.58"/>
    </edge>
    <edge id=":63082004_9" function="internal">
        <lane id=":63082004_9_0" index="0" speed="9.27" length="16.23" width="3.66" shape="1702.79,1017.77,51.57 1702.27,1014.10,51.60 1700.37,1011.09,51.63 1697.10,1008.74,51.67 1692.45,1007.06,51.71"/>
    </edge>
    <edge id=":63082004_10" function="internal">
        <lane id=":63082004_10_0" index="0" speed="15.65" length="37.06" width="3.66" shape="1702.79,1017.77,51.57 1706.67,980.92,51.58"/>
    </edge>
    <edge id=":63082004_11" function="internal">
        <lane id=":63082004_11_0" index="0" disallow="tram rail_urban rail rail_electric rail_fast ship" speed="11.01" length="32.64" width="3.66" shape="1706.45,1017.83,51.57 1707.51,1007.80,51.58 1710.28,1000.56,51.59 1715.48,996.84,51.59 1723.87,997.38,51.60"/>
    </edge>
    <edge id=":64208332_0" function="internal">
        <lane id=":64208332_0_0" index="0" disallow="tram rail_urban rail rail_electric rail_fast ship" speed="9.57" length="20.37" width="3.66" shape="1467.44,948.61,51.18 1459.80,946.80,51.09 1454.10,946.34,51.03 1450.31,947.23,50.98 1448.46,949.47,50.95"/>
    </edge>
    <edge id=":64208332_1" function="internal">
        <lane id=":64208332_1_0" index="0" disallow="tram rail_urban rail rail_electric rail_fast ship" speed="20.12" length="32.56" width="3.66" shape="1468.46,945.09,51.18 1437.05,936.58,51.03"/>
        <lane id=":64208332_1_1" index="1" disallow="tram rail_urban rail rail_electric rail_fast ship" speed="20.12" length="32.56" width="3.66" shape="1469.48,941.58,51.18 1438.04,933.06,51.03"/>
    </edge>
    <edge id=":64208332_3" function="internal">
        <lane id=":64208332_3_0" index="0" disallow="tram rail_urban rail rail_electric rail_fast ship" speed="12.04" length="11.64" shape="1470.50,938.06,51.18 1462.02,934.25,51.13 1460.43,932.53,51.12"/>
    </edge>
    <edge id=":64208332_12" function="internal">
        <lane id=":64208332_12_0" index="0" disallow="tram rail_urban rail rail_electric rail_fast ship" speed="12.04" length="22.17" shape="1460.43,932.53,51.12 1456.84,928.65,51.09 1454.99,921.27,51.05 1456.44,912.12,51.00"/>
    </edge>
    <edge id=":64208332_4" function="internal">
        <lane id=":64208332_4_0" index="0" disallow="tram rail_urban rail rail_electric rail_fast ship" speed="8.29" length="15.52" width="3.66" shape="1467.19,915.45,51.21 1466.48,919.62,51.20 1467.31,923.00,51.20 1469.69,925.57,51.20 1473.62,927.33,51.20"/>
    </edge>
    <edge id=":64208332_5" function="internal">
        <lane id=":64208332_5_0" index="0" disallow="tram rail_urban rail rail_electric rail_fast ship" speed="8.33" length="14.93" shape="1443.17,914.82,51.10 1448.30,915.82,51.06 1452.22,915.71,51.04 1454.93,914.47,51.02 1456.44,912.12,51.00"/>
    </edge>
    <edge id=":64208332_6" function="internal">
        <lane id=":64208332_6_0" index="0" disallow="tram rail_urban rail rail_electric rail_fast ship" speed="20.12" length="32.69" width="3.66" shape="1442.17,918.34,51.10 1473.62,927.33,51.20"/>
        <lane id=":64208332_6_1" index="1" disallow="tram rail_urban rail rail_electric rail_fast ship" speed="20.12" length="32.69" width="3.66" shape="1441.18,921.87,51.10 1472.60,930.85,51.20"/>
    </edge>
    <edge id=":64208332_8" function="internal">
        <lane id=":64208332_8_0" index="0" disallow="tram rail_urban rail rail_electric rail_fast ship" speed="11.14" length="11.30" width="3.66" shape="1440.19,925.39,51.10 1446.12,928.37,51.07 1448.72,932.25,51.04"/>
    </edge>
    <edge id=":64208332_13" function="internal">
        <lane id=":64208332_13_0" index="0" disallow="tram rail_urban rail rail_electric rail_fast ship" speed="11.14" length="17.67" width="3.66" shape="1448.72,932.25,51.04 1449.47,933.38,51.03 1450.25,940.41,51.00 1448.46,949.47,50.95"/>
    </edge>
    <edge id=":64208332_9" function="internal">
        <lane id=":64208332_9_0" index="0" disallow="tram rail_urban rail rail_electric rail_fast ship" speed="7.42" length="12.01" width="3.66" shape="1440.02,946.88,50.95 1440.74,942.94,50.98 1440.48,939.92,51.00 1439.25,937.80,51.01 1437.05,936.58,51.03"/>
    </edge>
    <edge id=":64208332_10" function="internal">
        <lane id=":64208332_10_0" index="0" disallow="tram rail_urban rail rail_electric rail_fast ship" speed="13.37" length="7.39" width="3.66" shape="1443.08,947.83,50.95 1445.88,940.99,50.99"/>
        <lane id=":64208332_10_1" index="1" disallow="tram rail_urban rail rail_electric rail_fast ship" speed="12.89" length="7.39" width="3.66" shape="1443.08,947.83,50.95 1446.00,941.04,51.00"/>
    </edge>
    <edge id=":64208332_14" function="internal">
        <lane id=":64208332_14_0" index="0" disallow="tram rail_urban rail rail_electric rail_fast ship" speed="13.37" length="34.62" width="3.66" shape="1445.88,940.99,50.99 1447.78,936.35,51.02 1454.44,929.10,51.08 1463.05,926.10,51.14 1473.62,927.33,51.20"/>
    </edge>
    <edge id=":64208332_15" function="internal">
        <lane id=":64208332_15_0" index="0" disallow="tram rail_urban rail rail_electric rail_fast ship" speed="12.89" length="31.58" width="3.66" shape="1446.00,941.04,51.00 1447.35,937.89,51.02 1453.70,931.75,51.08 1462.11,929.40,51.13 1472.60,930.85,51.20"/>
    </edge>
    <edge id=":834845345#1-AddedOffRampNode_0" function="internal">
        <lane id=":834845345#1-AddedOffRampNode_0_0" index="0" disallow="tram rail_urban rail rail_electric rail_fast ship" speed="21.23" length="25.49" width="3.66" shape="839.29,756.31,48.73 846.63,757.76,48.76 853.72,758.52,48.78 859.90,759.03,48.80 864.52,759.76,48.82"/>
    </edge>
    <edge id=":834845345#1-AddedOffRampNode_1" function="internal">
        <lane id=":834845345#1-AddedOffRampNode_1_0" index="0" disallow="tram rail_urban rail rail_electric rail_fast ship" speed="22.35" length="25.24" width="3.66" shape="839.29,756.31,48.73 863.54,763.36,48.80"/>
        <lane id=":834845345#1-AddedOffRampNode_1_1" index="1" disallow="tram rail_urban rail rail_electric rail_fast ship" speed="22.35" length="25.24" width="3.66" shape="838.35,759.85,48.73 862.58,766.89,48.80"/>
    </edge>
    <edge id=":J1_0" function="internal">
        <lane id=":J1_0_0" index="0" speed="15.65" length="0.10" width="3.66" shape="1715.36,952.84,51.70 1715.36,952.84,51.70"/>
        <lane id=":J1_0_1" index="1" speed="15.65" length="0.10" width="3.66" shape="1711.70,952.73,51.70 1711.70,952.73,51.70"/>
    </edge>
    <edge id=":J10_0" function="internal">
        <lane id=":J10_0_0" index="0" disallow="tram rail_urban rail rail_electric rail_fast ship" speed="20.12" length="0.30" width="3.66" shape="1597.87,962.30,51.67 1598.16,962.38,51.67"/>
        <lane id=":J10_0_1" index="1" disallow="tram rail_urban rail rail_electric rail_fast ship" speed="20.12" length="0.30" width="3.66" shape="1596.89,965.83,51.67 1597.18,965.91,51.67"/>
    </edge>
    <edge id=":J3_0" function="internal">
        <lane id=":J3_0_0" index="0" disallow="tram rail_urban rail rail_electric rail_fast ship" speed="20.12" length="9.17" width="3.66" shape="1008.29,797.57,49.11 1017.09,800.15,49.25"/>
    </edge>
    <edge id=":J3_1" function="internal">
        <lane id=":J3_1_0" index="0" disallow="tram rail_urban rail rail_electric rail_fast ship" speed="20.12" length="9.15" width="3.66" shape="1007.27,801.42,49.23 1016.14,803.69,49.25"/>
        <lane id=":J3_1_1" index="1" disallow="tram rail_urban rail rail_electric rail_fast ship" speed="20.12" length="9.15" width="3.66" shape="1006.33,804.96,49.23 1015.19,807.23,49.25"/>
    </edge>
    <edge id=":J4_0" function="internal">
        <lane id=":J4_0_0" index="0" disallow="tram rail_urban rail rail_electric rail_fast ship" speed="20.12" length="72.43" width="3.66" shape="1082.41,817.62,49.52 1151.24,840.38,49.74"/>
        <lane id=":J4_0_1" index="1" disallow="tram rail_urban rail rail_electric rail_fast ship" speed="20.12" length="72.43" width="3.66" shape="1081.46,821.16,49.52 1151.24,840.38,49.74"/>
        <lane id=":J4_0_2" index="2" disallow="tram rail_urban rail rail_electric rail_fast ship" speed="20.12" length="72.43" width="3.66" shape="1080.51,824.70,49.52 1150.32,843.92,49.74"/>
    </edge>
    <edge id=":J6_0" function="internal">
        <lane id=":J6_0_0" index="0" disallow="tram rail_urban rail rail_electric rail_fast ship" speed="15.65" length="13.67" width="3.66" shape="1702.92,964.74,51.55 1704.49,961.54,51.54 1705.82,958.51,51.53 1706.78,955.37,51.53 1707.21,951.89,51.52"/>
    </edge>
    <edge id=":J6_1" function="internal">
        <lane id=":J6_1_0" index="0" disallow="tram rail_urban rail rail_electric rail_fast ship" speed="15.65" length="15.46" width="3.66" shape="1707.36,967.35,51.55 1707.21,951.89,51.52"/>
    </edge>
    <edge id=":J7_0" function="internal">
        <lane id=":J7_0_0" index="0" disallow="tram rail_urban rail rail_electric rail_fast ship" speed="20.12" length="21.10" width="3.66" shape="1507.62,937.21,51.33 1527.95,942.56,51.39"/>
        <lane id=":J7_0_1" index="1" disallow="tram rail_urban rail rail_electric rail_fast ship" speed="20.12" length="21.10" width="3.66" shape="1506.60,940.73,51.33 1526.91,946.07,51.39"/>
        <lane id=":J7_0_2" index="2" disallow="tram rail_urban rail rail_electric rail_fast ship" speed="20.12" length="21.10" width="3.66" shape="1506.60,940.73,51.33 1512.23,942.86,51.35 1516.02,945.07,51.36 1519.92,947.32,51.37 1525.87,949.58,51.39"/>
    </edge>
    <edge id=":gneJ11_0" function="internal">
        <lane id=":gneJ11_0_0" index="0" disallow="tram rail_urban rail rail_electric rail_fast ship" speed="12.54" length="15.14" width="3.66" shape="1332.10,872.84,50.77 1334.23,869.72,50.87 1336.41,866.59,50.97 1338.40,863.36,51.07 1339.95,859.95,51.17"/>
    </edge>
    <edge id=":gneJ11_1" function="internal">
        <lane id=":gneJ11_1_0" index="0" disallow="tram rail_urban rail rail_electric rail_fast ship" speed="11.18" length="16.23" width="3.66" shape="1335.35,875.51,50.74 1339.95,859.95,51.17"/>
    </edge>
    <edge id=":gneJ12_0" function="internal">
        <lane id=":gneJ12_0_0" index="0" disallow="tram rail_urban rail rail_electric rail_fast ship" speed="13.42" length="8.74" width="3.66" shape="1312.78,907.00,50.52 1310.67,905.56,50.54 1309.49,904.09,50.55 1308.26,902.77,50.56 1305.99,901.75,50.58"/>
    </edge>
    <edge id=":gneJ12_1" function="internal">
        <lane id=":gneJ12_1_0" index="0" disallow="tram rail_urban rail rail_electric rail_fast ship" speed="20.12" length="7.95" width="3.66" shape="1313.66,903.75,50.59 1305.99,901.75,50.58"/>
        <lane id=":gneJ12_1_1" index="1" disallow="tram rail_urban rail rail_electric rail_fast ship" speed="20.12" length="7.95" width="3.66" shape="1314.62,900.22,50.59 1306.91,898.20,50.58"/>
    </edge>
    <edge id=":gneJ14_0" function="internal">
        <lane id=":gneJ14_0_0" index="0" disallow="tram rail_urban rail rail_electric rail_fast ship" speed="6.71" length="17.34" width="3.66" shape="1313.49,950.21,50.32 1314.45,944.67,50.29 1314.46,940.27,50.27 1314.31,936.53,50.26 1314.73,932.98,50.24"/>
    </edge>
    <edge id=":gneJ14_1" function="internal">
        <lane id=":gneJ14_1_0" index="0" disallow="tram rail_urban rail rail_electric rail_fast ship" speed="6.71" length="16.98" width="3.66" shape="1313.49,950.21,50.32 1318.59,934.01,50.32"/>
        <lane id=":gneJ14_1_1" index="1" disallow="tram rail_urban rail rail_electric rail_fast ship" speed="6.71" length="16.98" width="3.66" shape="1317.02,951.16,50.32 1322.13,934.96,50.32"/>
    </edge>
    <edge id=":gneJ16_0" function="internal">
        <lane id=":gneJ16_0_0" index="0" disallow="tram rail_urban rail rail_electric rail_fast ship" speed="17.01" length="19.66" width="3.66" shape="1425.72,933.40,51.00 1419.38,932.26,50.98 1414.23,932.23,50.97 1409.95,932.45,50.96 1406.19,932.07,50.95"/>
    </edge>
    <edge id=":gneJ16_1" function="internal">
        <lane id=":gneJ16_1_0" index="0" disallow="tram rail_urban rail rail_electric rail_fast ship" speed="20.12" length="19.36" width="3.66" shape="1425.72,933.40,51.00 1407.16,928.50,51.00"/>
        <lane id=":gneJ16_1_1" index="1" disallow="tram rail_urban rail rail_electric rail_fast ship" speed="20.12" length="19.36" width="3.66" shape="1426.72,929.88,51.00 1408.12,924.97,51.00"/>
        <lane id=":gneJ16_1_2" index="2" disallow="tram rail_urban rail rail_electric rail_fast ship" speed="20.12" length="19.36" width="3.66" shape="1426.72,929.88,51.00 1421.31,927.80,51.00 1417.90,925.63,51.00 1414.49,923.47,51.00 1409.08,921.44,51.00"/>
    </edge>
    <edge id=":gneJ17_0" function="internal">
        <lane id=":gneJ17_0_0" index="0" disallow="tram rail_urban rail rail_electric rail_fast ship" speed="10.30" length="11.74" width="3.66" shape="1334.11,921.09,50.48 1331.86,923.48,50.44 1329.96,925.38,50.41 1328.43,927.47,50.38 1327.28,930.44,50.34"/>
    </edge>
    <edge id=":gneJ17_1" function="internal">
        <lane id=":gneJ17_1_0" index="0" disallow="tram rail_urban rail rail_electric rail_fast ship" speed="6.71" length="11.74" width="3.66" shape="1330.38,919.12,50.47 1327.28,930.44,50.34"/>
    </edge>
    <edge id=":gneJ18_0" function="internal">
        <lane id=":gneJ18_0_0" index="0" disallow="tram rail_urban rail rail_electric rail_fast ship" speed="20.12" length="23.05" width="3.66" shape="1372.75,899.94,50.85 1378.87,900.90,50.86 1383.75,900.74,50.87 1388.92,900.68,50.88 1395.92,901.92,50.89"/>
        <lane id=":gneJ18_0_1" index="1" disallow="tram rail_urban rail rail_electric rail_fast ship" speed="20.12" length="23.05" width="3.66" shape="1372.75,899.94,50.85 1394.95,905.45,50.89"/>
        <lane id=":gneJ18_0_2" index="2" disallow="tram rail_urban rail rail_electric rail_fast ship" speed="20.12" length="23.05" width="3.66" shape="1371.81,903.48,50.85 1393.99,908.99,50.89"/>
        <lane id=":gneJ18_0_3" index="3" disallow="tram rail_urban rail rail_electric rail_fast ship" speed="20.12" length="23.05" width="3.66" shape="1371.81,903.48,50.85 1377.64,905.54,50.86 1381.87,907.82,50.87 1386.38,910.18,50.88 1393.02,912.52,50.89"/>
    </edge>
    <edge id=":gneJ22_0" function="internal">
        <lane id=":gneJ22_0_0" index="0" disallow="tram rail_urban rail rail_electric rail_fast ship" speed="17.89" length="28.25" width="3.66" shape="1652.69,976.86,51.80 1662.10,978.68,51.77 1669.93,979.14,51.74 1676.15,978.88,51.72 1680.73,978.55,51.71"/>
    </edge>
    <edge id=":gneJ22_1" function="internal">
        <lane id=":gneJ22_1_0" index="0" disallow="tram rail_urban rail rail_electric rail_fast ship" speed="20.12" length="28.32" width="3.66" shape="1652.69,976.86,51.80 1680.23,983.31,51.62"/>
        <lane id=":gneJ22_1_1" index="1" disallow="tram rail_urban rail rail_electric rail_fast ship" speed="20.12" length="28.32" width="3.66" shape="1651.75,980.40,51.80 1679.32,986.85,51.62"/>
        <lane id=":gneJ22_1_2" index="2" disallow="tram rail_urban rail rail_electric rail_fast ship" speed="20.12" length="28.32" width="3.66" shape="1650.80,983.93,51.80 1678.41,990.40,51.62"/>
    </edge>
    <edge id=":gneJ24_0" function="internal">
        <lane id=":gneJ24_0_0" index="0" disallow="tram rail_urban rail rail_electric rail_fast ship" speed="20.12" length="10.13" width="3.66" shape="1728.12,994.79,51.62 1737.91,997.32,51.62"/>
        <lane id=":gneJ24_0_1" index="1" disallow="tram rail_urban rail rail_electric rail_fast ship" speed="20.12" length="10.13" width="3.66" shape="1727.12,998.31,51.62 1736.95,1000.86,51.62"/>
    </edge>
    <edge id=":gneJ24_2" function="internal">
        <lane id=":gneJ24_2_0" index="0" disallow="tram rail_urban rail rail_electric rail_fast ship" speed="17.89" length="11.00" width="3.66" shape="1729.23,990.90,51.53 1731.89,992.27,51.55 1733.42,994.08,51.57 1735.03,995.91,51.59 1737.91,997.32,51.62"/>
    </edge>
    <edge id=":gneJ26_0" function="internal">
        <lane id=":gneJ26_0_0" index="0" disallow="tram rail_urban rail rail_electric rail_fast ship" speed="17.01" length="14.42" width="3.66" shape="1811.03,1041.02,51.10 1797.06,1037.42,51.14"/>
    </edge>
    <edge id=":gneJ26_1" function="internal">
        <lane id=":gneJ26_1_0" index="0" disallow="tram rail_urban rail rail_electric rail_fast ship" speed="20.12" length="14.52" width="3.66" shape="1811.97,1037.48,51.10 1797.97,1033.73,51.29"/>
        <lane id=":gneJ26_1_1" index="1" disallow="tram rail_urban rail rail_electric rail_fast ship" speed="20.12" length="14.52" width="3.66" shape="1812.91,1033.94,51.10 1798.85,1030.18,51.29"/>
    </edge>
    <edge id=":gneJ27_0" function="internal">
        <lane id=":gneJ27_0_0" index="0" disallow="tram rail_urban rail rail_electric rail_fast ship" speed="14.77" length="13.44" width="3.66" shape="1714.89,1025.20,51.41 1713.33,1028.36,51.37 1712.06,1031.33,51.33 1711.15,1034.39,51.29 1710.67,1037.84,51.25"/>
    </edge>
    <edge id=":gneJ27_1" function="internal">
        <lane id=":gneJ27_1_0" index="0" disallow="tram rail_urban rail rail_electric rail_fast ship" speed="15.65" length="13.66" width="3.66" shape="1710.78,1024.19,51.45 1710.67,1037.84,51.25"/>
    </edge>
    <edge id=":gneJ32_0" function="internal">
        <lane id=":gneJ32_0_0" index="0" speed="15.65" length="16.19" width="3.66" shape="1701.34,1083.07,51.34 1700.69,1066.97,51.22"/>
        <lane id=":gneJ32_0_1" index="1" speed="15.65" length="16.19" width="3.66" shape="1701.34,1083.07,51.34 1701.85,1079.61,51.31 1702.79,1076.26,51.29 1703.76,1072.33,51.26 1704.35,1067.12,51.22"/>
    </edge>
    <edge id=":gneJ48_0" function="internal">
        <lane id=":gneJ48_0_0" index="0" disallow="tram rail_urban rail rail_electric rail_fast ship" speed="11.18" length="8.81" width="3.66" shape="1346.90,822.65,51.99 1347.72,825.17,52.00 1348.80,826.75,52.01 1349.79,828.34,52.02 1350.36,830.89,52.03"/>