<?xml version="1.0" encoding="UTF-8"?>

<!-- generated on 2023-11-11 07:55:50 by Eclipse SUMO netedit Version v1_19_0+0022-4c0a3df81e3
-->

<additional xmlns:xsi="http://www.w3.org/2001/XMLSchema-instance" xsi:noNamespaceSchemaLocation="http://sumo.dlr.de/xsd/additional_file.xsd">
    <!-- Shapes -->
    <poly id="po_0" color="red" fill="0" layer="0.00" shape="608.590000,817.950000 1339.130000,996.840000 1386.260000,968.990000 1473.030000,991.480000 1515.870000,1024.690000 1574.780000,1039.680000 1679.760000,1113.590000 1726.890000,1116.800000 1860.780000,1088.950000 1881.130000,1021.470000 1766.520000,817.960000 1669.050000,816.880000 1622.990000,918.640000 1428.040000,858.660000 1379.840000,783.680000 1293.070000,791.180000 1056.350000,723.700000 1044.570000,593.020000 940.670000,596.230000 925.670000,750.470000 648.250000,668.000000 608.590000,817.950000"/>
</additional>
