<?xml version="1.0" encoding="UTF-8"?>

<!-- generated on 2022-07-05 11:07:06 by Eclipse SUMO netedit Version v1_12_0+1700-0ea407e0f30
-->

<additional xmlns:xsi="http://www.w3.org/2001/XMLSchema-instance" xsi:noNamespaceSchemaLocation="http://sumo.dlr.de/xsd/additional_file.xsd">
    <!-- Detectors -->
    <!-- <e2Detector id="63082002_9_additional" lane="834845345#1_1" pos="266.20" length="3.00" freq="60.00" file="NUL"/>
    <e2Detector id="63082002_12_additional" lane="115872656#11.5_0" pos="184.33" length="3.00" freq="60.00" file="NUL"/>
    <e2Detector id="63082002_11_additional" lane="115872656#11.5_1" pos="184.32" length="3.00" freq="60.00" file="NUL"/> -->
    <e2Detector id="63082002_2_0" lane="gneE11_0" pos="30.70" length="3.00" freq="60.00" file="NUL"/>
    <e2Detector id="63082002_2_1" lane="gneE11_1" pos="30.70" length="3.00" freq="60.00" file="NUL"/>
    <e2Detector id="63082002_4_0" lane="gneE0.12_0" pos="8.50" length="15.24" freq="60.00" file="NUL" friendlyPos="1"/>
    <e2Detector id="63082002_5_0" lane="gneE11_2" pos="-16" length="15.24" freq="60.00" file="NUL"/>
    <e2Detector id="63082002_6_0" lane="834845345#2_0" pos="5.00" length="3.00" freq="60.00" file="NUL"/>
    <e2Detector id="63082002_6_1" lane="834845345#2_1" pos="5.00" length="3.00" freq="60.00" file="NUL"/>
    <!-- <e2Detector id="63082002_10_additional" lane="834845345#1_0" pos="266.20" length="3.00" freq="60.00" file="NUL"/>
    <e2Detector id="63082003_9_additional" lane="834845345#4_1" pos="17.43" length="3.00" freq="60.00" file="NUL"/>
    <e2Detector id="63082003_12_additional" lane="115872656#9_1" pos="-20" length="3.00" freq="60.00" file="NUL"/>
    <e2Detector id="63082003_11_additional" lane="115872656#9_2" pos="-20" length="3.00" freq="60.00" file="NUL"/> -->
    <e2Detector id="63082003_1_0" lane="834845345#5.74.43_2" pos="64.00" length="15.24" freq="60.00" file="NUL"/>
    <e2Detector id="63082003_2_0" lane="115872656#10_0" pos="0.00" length="3.00" freq="60.00" file="NUL"/>
    <e2Detector id="63082003_2_1" lane="115872656#10_1" pos="0.00" length="3.00" freq="60.00" file="NUL"/>
    <e2Detector id="63082003_3_0" lane="660891910#1.19_1" pos="5.00" length="15.24" freq="60.00" file="NUL"/>
    <e2Detector id="63082003_4_0" lane="-638636924#1.9_0" pos="37.81" length="15.24" freq="60.00" file="NUL" friendlyPos="1"/>
    <e2Detector id="63082003_5_0" lane="115872656#10.14_2" pos="-16" length="15.24" freq="60.00" file="NUL"/>
    <e2Detector id="63082003_6_0" lane="834845345#5.74_1" pos="6.50" length="3.00" freq="60.00" file="NUL"/>
    <e2Detector id="63082003_6_1" lane="834845345#5.74_2" pos="6.50" length="3.00" freq="60.00" file="NUL"/>
    <e2Detector id="63082003_7_0" lane="-638636924#1.9_1" pos="37.59" length="15.24" freq="60.00" file="NUL"/>
    <e2Detector id="63082003_8_0" lane="660891910#1.19_0" pos="5.00" length="15.24" freq="60.00" file="NUL"/>
    <!-- <e2Detector id="63082003_10_additional" lane="834845345#4_0" pos="17.04" length="3.00" freq="60.00" file="NUL"/>
    <e2Detector id="63082004_9_additional" lane="834845345#7_1" pos="85.00" length="3.00" freq="60.00" file="NUL"/>
    <e2Detector id="63082004_12_additional" lane="115872656#5_1" pos="23.00" length="3.00" freq="60.00" file="NUL"/>
    <e2Detector id="63082004_11_additional" lane="115872656#5_2" pos="23.00" length="3.00" freq="60.00" file="NUL"/> -->
    <e2Detector id="63082004_1_0" lane="834845345#8.108_2" pos="-15.00" length="14.24" freq="300.00" file="NUL"/>
    <e2Detector id="63082004_2_0" lane="gneE22_0" pos="0" length="3.00" freq="60.00" file="NUL"/>
    <e2Detector id="63082004_2_1" lane="gneE22_1" pos="0" length="3.00" freq="60.00" file="NUL"/>
    <e2Detector id="63082004_3_0" lane="gneE18_1" pos="-16" length="15.24" freq="60.00" file="NUL"/>
    <e2Detector id="63082004_4_0" lane="gneE20_0" pos="-16" length="15.24" freq="60.00" file="NUL"/>
    <e2Detector id="63082004_5_0" lane="gneE22.27_2" pos="22.76" length="15.24" freq="60.00" file="NUL" friendlyPos="1"/>
    <e2Detector id="63082004_6_0" lane="834845345#8.20_0" pos="0.00" length="3.00" freq="60.00" file="NUL"/>
    <e2Detector id="63082004_6_1" lane="834845345#8.20_1" pos="0.00" length="3.00" freq="60.00" file="NUL"/>
    <e2Detector id="63082004_7_0" lane="gneE20_1" pos="-16" length="15.24" freq="60.00" file="NUL"/>
    <e2Detector id="63082004_8_0" lane="gneE18_0" pos="-16" length="15.24" freq="60.00" file="NUL"/>
    <!-- <e2Detector id="63082004_10_additional" lane="834845345#7_0" pos="85.00" length="3.00" freq="60.00" file="NUL"/> -->
</additional>
