<additional>
	<e2Detector id="63082004_44_1" lane="834845345#8.20.13_1" pos="-6" length="5.00" freq="300.00" file="radar.out.e2.add.xml"/>
	<e2Detector id="63082002_44_1" lane="834845345#1_0" pos="-6" length="5.00" freq="300.00" file="radar.out.e2.add.xml"/>
	<e2Detector id="63082004_42_1" lane="834845345#8.108_0" pos="-6" length="5.00" freq="300.00" file="radar.out.e2.add.xml"/>
	<e2Detector id="63082003_42_1" lane="834845345#5.74.43_0" pos="-6" length="5.00" freq="300.00" file="radar.out.e2.add.xml"/>
	<e2Detector id="63082002_42_1" lane="8884863_0" pos="-6" length="5.00" freq="300.00" file="radar.out.e2.add.xml"/>
	<e2Detector id="63082003_51_1" lane="115872656#10.14_0" pos="-6" length="5.00" freq="300.00" file="radar.out.e2.add.xml"/>
	<e2Detector id="63082004_56_1" lane="gneE20_0" pos="-6" length="5.00" freq="300.00" file="radar.out.e2.add.xml"/>
	<e2Detector id="63082002_45_1" lane="gneE11_2" pos="-6" length="5.00" freq="300.00" file="radar.out.e2.add.xml"/>
	<e2Detector id="63082004_54_1" lane="115872656#5_1" pos="-6" length="5.00" freq="300.00" file="radar.out.e2.add.xml"/>
	<e2Detector id="63082002_47_1" lane="gneE11_0" pos="-6" length="5.00" freq="300.00" file="radar.out.e2.add.xml"/>
	<e2Detector id="63082002_51_1" lane="Airport_to_US69_0" pos="-6" length="5.00" freq="300.00" file="radar.out.e2.add.xml"/>
	<e2Detector id="63082002_43_1" lane="834845345#1_1" pos="-6" length="5.00" freq="300.00" file="radar.out.e2.add.xml"/>
	<e2Detector id="63082004_53_1" lane="115872656#5_2" pos="-6" length="5.00" freq="300.00" file="radar.out.e2.add.xml"/>
	<e2Detector id="63082004_49_1" lane="gneE22.27_2" pos="-6" length="5.00" freq="300.00" file="radar.out.e2.add.xml"/>
	<e2Detector id="63082003_48_1" lane="gneE4_0" pos="-6" length="5.00" freq="300.00" file="radar.out.e2.add.xml"/>
	<e2Detector id="63082003_40_1" lane="834845345#5.74.43_2" pos="-6" length="5.00" freq="300.00" file="radar.out.e2.add.xml"/>
	<e2Detector id="63082003_55_1" lane="-638636924#1.9_1" pos="-6" length="5.00" freq="300.00" file="radar.out.e2.add.xml"/>
	<e2Detector id="63082003_46_1" lane="660891910#1.19_1" pos="-6" length="5.00" freq="300.00" file="radar.out.e2.add.xml"/>
	<e2Detector id="63082004_51_1" lane="gneE22.27_0" pos="-6" length="5.00" freq="300.00" file="radar.out.e2.add.xml"/>
	<e2Detector id="63082004_55_1" lane="gneE20_1" pos="-6" length="5.00" freq="300.00" file="radar.out.e2.add.xml"/>
	<e2Detector id="63082004_41_1" lane="834845345#8.108_1" pos="-6" length="5.00" freq="300.00" file="radar.out.e2.add.xml"/>
	<e2Detector id="63082003_44_1" lane="834845345#4_1" pos="-6" length="5.00" freq="300.00" file="radar.out.e2.add.xml"/>
	<e2Detector id="63082004_52_1" lane="gneE10_0" pos="-6" length="5.00" freq="300.00" file="radar.out.e2.add.xml"/>
	<e2Detector id="63082004_45_1" lane="834845345#8.20.13_0" pos="-6" length="5.00" freq="300.00" file="radar.out.e2.add.xml"/>
	<e2Detector id="63082003_49_1" lane="115872656#10.14_2" pos="-6" length="5.00" freq="300.00" file="radar.out.e2.add.xml"/>
	<e2Detector id="63082002_41_1" lane="834845345#2_0" pos="-6" length="5.00" freq="300.00" file="radar.out.e2.add.xml"/>
	<e2Detector id="63082004_47_1" lane="gneE18_0" pos="-6" length="5.00" freq="300.00" file="radar.out.e2.add.xml"/>
	<e2Detector id="63082002_40_1" lane="834845345#2_1" pos="-6" length="5.00" freq="300.00" file="radar.out.e2.add.xml"/>
	<e2Detector id="63082003_43_1" lane="gneE2_0" pos="-6" length="5.00" freq="300.00" file="radar.out.e2.add.xml"/>
	<e2Detector id="63082004_46_1" lane="gneE18_1" pos="-6" length="5.00" freq="300.00" file="radar.out.e2.add.xml"/>
	<e2Detector id="63082002_46_1" lane="gneE11_1" pos="-6" length="5.00" freq="300.00" file="radar.out.e2.add.xml"/>
	<e2Detector id="63082003_41_1" lane="834845345#5.74.43_1" pos="-6" length="5.00" freq="300.00" file="radar.out.e2.add.xml"/>
	<e2Detector id="63082003_47_1" lane="660891910#1.19_0" pos="-6" length="5.00" freq="300.00" file="radar.out.e2.add.xml"/>
	<e2Detector id="63082004_40_1" lane="834845345#8.108_2" pos="-6" length="5.00" freq="300.00" file="radar.out.e2.add.xml"/>
	<e2Detector id="63082004_50_1" lane="gneE22.27_1" pos="-6" length="5.00" freq="300.00" file="radar.out.e2.add.xml"/>
	<e2Detector id="63082004_43_1" lane="gneE8_0" pos="-6" length="5.00" freq="300.00" file="radar.out.e2.add.xml"/>
	<e2Detector id="63082003_45_1" lane="834845345#4_0" pos="-6" length="5.00" freq="300.00" file="radar.out.e2.add.xml"/>
	<e2Detector id="63082003_53_1" lane="115872656#10_0" pos="-6" length="5.00" freq="300.00" file="radar.out.e2.add.xml"/>
	<e2Detector id="63082002_49_1" lane="115872656#11.5_0" pos="-6" length="5.00" freq="300.00" file="radar.out.e2.add.xml"/>
	<e2Detector id="63082003_52_1" lane="gneE5_0" pos="-6" length="5.00" freq="300.00" file="radar.out.e2.add.xml"/>
	<e2Detector id="63082003_56_1" lane="-638636924#1.9_0" pos="-6" length="5.00" freq="300.00" file="radar.out.e2.add.xml"/>
	<e2Detector id="63082002_50_1" lane="gneE0.12_0" pos="-6" length="5.00" freq="300.00" file="radar.out.e2.add.xml"/>
	<e2Detector id="63082002_48_1" lane="115872656#11.5_1" pos="-6" length="5.00" freq="300.00" file="radar.out.e2.add.xml"/>
	<e2Detector id="63082003_50_1" lane="115872656#10.14_1" pos="-6" length="5.00" freq="300.00" file="radar.out.e2.add.xml"/>
	<e2Detector id="63082003_54_1" lane="115872656#10_1" pos="-6" length="5.00" freq="300.00" file="radar.out.e2.add.xml"/>
</additional>
